[General]
########## 设置网络  ##########
network=cApplicationTest
########## 仿真时间  ##########
sim-time-limit = 100s
########## 区域大小定义  ##########
**.constraintAreaMaxX = 600m #需要修改
**.constraintAreaMaxY = 600m #需要修改
**.constraintAreaMaxZ = 0m
**.constraintAreaMinX = 0m
**.constraintAreaMinY = 0m
**.constraintAreaMinZ = 0m
#设置AP的移动模型以及参数
**.ap.mobilityType = "StationaryMobility"
**.ap.mobility.initialX = 300m #根据constraintAreaMaxX进行修改
**.ap.mobility.initialY = 300m #根据constraintAreaMaxY进行修改
**.ap.mobility.initialZ = 0m
**.ap.mobility.initFromDisplayString = false
#设置host的移动模型以及参数
**.host[*].mobilityType = "RandomWPMobility"
**.host[*].mobility.initFromDisplayString = false
**.host[*].mobility.speed = 20mps #需要修改
**.host[*].mobility.updateInterval = 1s #需要修改
**.host[*].mobility.waitTime = 0.5s #需要修改

[Config cApplicationTest]
**.hostNum = 3

**.host[*].appType = "BurstGenerator"
**.host[*].app.startTime = 0s
**.host[*].app.burstNum = normal(50, 5)
**.host[*].app.burstInterval = exponential(0.1s)
**.host[*].app.packetLength = 4096b
